 ****** HSPICE -- J-2014.09-SP2-2 64-BIT (Apr 17 2015) win64 ******             
  Copyright (C) 2014 Synopsys, Inc. All Rights Reserved.                        
  Unpublished-rights reserved under US copyright laws.
  This program is protected by law and is subject to the
  terms and conditions of the license agreement from Synopsys.
  Use of this program is your acceptance to be bound by the
  license agreement. HSPICE is the trademark of Synopsys, Inc.
  Input File: mms_tb.sp                                                         
  Command line options: -i mms_tb.sp -o mms_tb.lis
  lic:  
  lic: FLEXlm: v10.9.8 
  lic: USER:   shuangwen            HOSTNAME: Lenovo-XiaoXin 
  lic: HOSTID: "004238abc614 005056c00001 005056c00008 004238abc610 004238abc611
  024238abc610" PID:  
  lic: Using FLEXlm license file: 
  lic: 27000@Lenovo-XiaoXin 
  lic: Checkout 1 hspice 
  lic: License/Maintenance for hspice will expire on 30-dec-2030/2019.2019 
  lic: 1(in_use)/99(total) FLOATING license(s) on SERVER 27000@Lenovo-XiaoXin 
  lic:   
 Init: read install configuration file: D:\synopsys\Hspice_J-2014.09-SP2-2\meta.cfg
  **warning** Warning(s) associated with encrypted block(s) were suppressed due to encrypted content.

 scientific notation:
 a=10**-18  f=10**-15  p=10**-12  n=10**-9  u=10**-6
 m=10**-3   k=10**3    x=10**6    g=10**9 
1****** HSPICE -- J-2014.09-SP2-2 64-BIT (Apr 17 2015) win64 ******             
 ******  
 .title mms testbench

 ****** circuit name directory
 circuit number to circuit name directory
   number circuitname                     definition         multiplier
        0 main circuit
        1 x_mms.                          mms_4f             1.00 
        2 x_buffer1.                      buffer             1.00 
        3 x_buffer2.                      buffer             1.00 
        4 x_buffer3.                      buffer             1.00 
        5 x_buffer4.                      buffer             1.00 
        6 x_buffer5.                      buffer             1.00 
        7 x_buffer6.                      buffer             1.00 
        8 x_buffer7.                      buffer             1.00 
        9 x_buffer8.                      buffer             1.00 
       10 x_buffer9.                      buffer             1.00 
       11 x_buffer10.                     buffer             1.00 
       12 x_buffer11.                     buffer             1.00 
       13 x_buffer12.                     buffer             1.00 
       14 x_mms.x_test1.                  adder14            1.00 
       15 x_mms.x_test2.                  mux28to14          1.00 
       16 x_mms.x_test3.                  mux28to14          1.00 
       17 x_mms.x_test4.                  reg14              1.00 
       18 x_mms.x_test5.                  comparator8        1.00 
       19 x_mms.x_test6.                  mux16to8           1.00 
       20 x_mms.x_test7.                  mux16to8           1.00 
       21 x_mms.x_test8.                  mux16to8           1.00 
       22 x_mms.x_test9.                  reg8               1.00 
       23 x_mms.x_test10.                 comparator8        1.00 
       24 x_mms.x_test11.                 mux16to8           1.00 
       25 x_mms.x_test12.                 mux16to8           1.00 
       26 x_mms.x_test13.                 mux16to8           1.00 
       27 x_mms.x_test14.                 reg8               1.00 
       28 x_mms.x_test15.                 mux16to8           1.00 
       29 x_buffer1.x_inv1.               inv                1.00 
       30 x_buffer1.x_inv2.               inv                1.00 
       31 x_buffer2.x_inv1.               inv                1.00 
       32 x_buffer2.x_inv2.               inv                1.00 
       33 x_buffer3.x_inv1.               inv                1.00 
       34 x_buffer3.x_inv2.               inv                1.00 
       35 x_buffer4.x_inv1.               inv                1.00 
       36 x_buffer4.x_inv2.               inv                1.00 
       37 x_buffer5.x_inv1.               inv                1.00 
       38 x_buffer5.x_inv2.               inv                1.00 
       39 x_buffer6.x_inv1.               inv                1.00 
       40 x_buffer6.x_inv2.               inv                1.00 
       41 x_buffer7.x_inv1.               inv                1.00 
       42 x_buffer7.x_inv2.               inv                1.00 
       43 x_buffer8.x_inv1.               inv                1.00 
       44 x_buffer8.x_inv2.               inv                1.00 
       45 x_buffer9.x_inv1.               inv                1.00 
       46 x_buffer9.x_inv2.               inv                1.00 
       47 x_buffer10.x_inv1.              inv                1.00 
       48 x_buffer10.x_inv2.              inv                1.00 
       49 x_buffer11.x_inv1.              inv                1.00 
       50 x_buffer11.x_inv2.              inv                1.00 
       51 x_buffer12.x_inv1.              inv                1.00 
       52 x_buffer12.x_inv2.              inv                1.00 
       53 x_mms.x_test1.x_ha1_1.          ha1                1.00 
       54 x_mms.x_test1.x_fa1_1.          fa1                1.00 
       55 x_mms.x_test1.x_adder4_1.       adder4             1.00 
       56 x_mms.x_test1.x_adder4_2.       adder4             1.00 
       57 x_mms.x_test1.x_adder4_revise_1.
                                            adder4_revise      1.00 
       58 x_mms.x_test2.x_mux2to1_1.      mux2to1            1.00 
       59 x_mms.x_test2.x_mux2to1_2.      mux2to1            1.00 
       60 x_mms.x_test2.x_mux8to4_1.      mux8to4            1.00 
       61 x_mms.x_test2.x_mux16to8_1.     mux16to8           1.00 
       62 x_mms.x_test3.x_mux2to1_1.      mux2to1            1.00 
       63 x_mms.x_test3.x_mux2to1_2.      mux2to1            1.00 
       64 x_mms.x_test3.x_mux8to4_1.      mux8to4            1.00 
       65 x_mms.x_test3.x_mux16to8_1.     mux16to8           1.00 
       66 x_mms.x_test4.x_d_pulsetrigger1.
                                            d_pulsetrigger     1.00 
       67 x_mms.x_test4.x_d_pulsetrigger2.
                                            d_pulsetrigger     1.00 
       68 x_mms.x_test4.x_reg4_1.         reg4               1.00 
       69 x_mms.x_test4.x_reg8_1.         reg8               1.00 
       70 x_mms.x_test5.x_comparator4_1.  comparator4_revise
                                                                 1.00 
       71 x_mms.x_test5.x_nand2_1.        nand2              1.00 
       72 x_mms.x_test5.x_nand2_2.        nand2              1.00 
       73 x_mms.x_test5.x_nand2_3.        nand2              1.00 
       74 x_mms.x_test5.x_nand2_4.        nand2              1.00 
       75 x_mms.x_test5.x_capckt1_1.      capckt1            1.00 
       76 x_mms.x_test5.x_capckt1_2.      capckt1            1.00 
       77 x_mms.x_test5.x_capckt1_3.      capckt1            1.00 
       78 x_mms.x_test5.x_capckt1_4.      capckt1            1.00 
       79 x_mms.x_test5.x_and5_5.         and5               1.00 
       80 x_mms.x_test5.x_and5_6.         and5               1.00 
       81 x_mms.x_test5.x_and4_2.         and4               1.00 
       82 x_mms.x_test5.x_and3_2.         and3               1.00 
       83 x_mms.x_test5.x_and2_2.         and2               1.00 
       84 x_mms.x_test5.x_capckt2_2.      capckt2_revise1    1.00 
       85 x_mms.x_test6.x_mux8to4_1.      mux8to4            1.00 
       86 x_mms.x_test6.x_mux8to4_2.      mux8to4            1.00 
       87 x_mms.x_test7.x_mux8to4_1.      mux8to4            1.00 
       88 x_mms.x_test7.x_mux8to4_2.      mux8to4            1.00 
       89 x_mms.x_test8.x_mux8to4_1.      mux8to4            1.00 
       90 x_mms.x_test8.x_mux8to4_2.      mux8to4            1.00 
       91 x_mms.x_test9.x_reg4_1.         reg4               1.00 
       92 x_mms.x_test9.x_reg4_2.         reg4               1.00 
       93 x_mms.x_test10.x_comparator4_1. comparator4_revise
                                                                 1.00 
       94 x_mms.x_test10.x_nand2_1.       nand2              1.00 
       95 x_mms.x_test10.x_nand2_2.       nand2              1.00 
       96 x_mms.x_test10.x_nand2_3.       nand2              1.00 
       97 x_mms.x_test10.x_nand2_4.       nand2              1.00 
       98 x_mms.x_test10.x_capckt1_1.     capckt1            1.00 
       99 x_mms.x_test10.x_capckt1_2.     capckt1            1.00 
      100 x_mms.x_test10.x_capckt1_3.     capckt1            1.00 
      101 x_mms.x_test10.x_capckt1_4.     capckt1            1.00 
      102 x_mms.x_test10.x_and5_5.        and5               1.00 
      103 x_mms.x_test10.x_and5_6.        and5               1.00 
      104 x_mms.x_test10.x_and4_2.        and4               1.00 
      105 x_mms.x_test10.x_and3_2.        and3               1.00 
      106 x_mms.x_test10.x_and2_2.        and2               1.00 
      107 x_mms.x_test10.x_capckt2_2.     capckt2_revise1    1.00 
      108 x_mms.x_test11.x_mux8to4_1.     mux8to4            1.00 
      109 x_mms.x_test11.x_mux8to4_2.     mux8to4            1.00 
      110 x_mms.x_test12.x_mux8to4_1.     mux8to4            1.00 
      111 x_mms.x_test12.x_mux8to4_2.     mux8to4            1.00 
      112 x_mms.x_test13.x_mux8to4_1.     mux8to4            1.00 
      113 x_mms.x_test13.x_mux8to4_2.     mux8to4            1.00 
      114 x_mms.x_test14.x_reg4_1.        reg4               1.00 
      115 x_mms.x_test14.x_reg4_2.        reg4               1.00 
      116 x_mms.x_test15.x_mux8to4_1.     mux8to4            1.00 
      117 x_mms.x_test15.x_mux8to4_2.     mux8to4            1.00 
      166 x_mms.x_test1.x_ha1_1.x_xor2_1. xor2               1.00 
      167 x_mms.x_test1.x_ha1_1.x_and2_1. and2               1.00 
      168 x_mms.x_test1.x_fa1_1.x_inverter1.
                                            inverter           1.00 
      169 x_mms.x_test1.x_fa1_1.x_inverter2.
                                            inverter           1.00 
      170 x_mms.x_test1.x_fa1_1.x_inverter3.
                                            inverter           1.00 
      183 x_mms.x_test1.x_fa1_1.x_nand2_1.
                                            nand2              1.00 
      184 x_mms.x_test1.x_fa1_1.x_nand3_1.
                                            nand3              1.00 
      185 x_mms.x_test1.x_fa1_1.x_nand3_2.
                                            nand3              1.00 
      186 x_mms.x_test1.x_fa1_1.x_nand3_3.
                                            nand3              1.00 
      187 x_mms.x_test1.x_fa1_1.x_nand3_4.
                                            nand3              1.00 
      188 x_mms.x_test1.x_fa1_1.x_and4_1. and4               1.00 
      189 x_mms.x_test1.x_adder4_1.x_inverter1.
                                            inverter           1.00 
      190 x_mms.x_test1.x_adder4_1.x_inverter2.
                                            inverter           1.00 
      191 x_mms.x_test1.x_adder4_1.x_adderckt1_1.
                                            adderckt1          1.00 
      192 x_mms.x_test1.x_adder4_1.x_adderckt2_1.
                                            adderckt2          1.00 
      193 x_mms.x_test1.x_adder4_1.x_xor2_1.
                                            xor2               1.00 
      194 x_mms.x_test1.x_adder4_1.x_adderckt1_2.
                                            adderckt1          1.00 
      195 x_mms.x_test1.x_adder4_1.x_adderckt2_2.
                                            adderckt2          1.00 
      196 x_mms.x_test1.x_adder4_1.x_mybuffer1.
                                            mybuffer           1.00 
      197 x_mms.x_test1.x_adder4_1.x_and2_1.
                                            and2               1.00 
      198 x_mms.x_test1.x_adder4_1.x_nor2_1.
                                            nor2               1.00 
      199 x_mms.x_test1.x_adder4_1.x_xor2_2.
                                            xor2               1.00 
      200 x_mms.x_test1.x_adder4_1.x_adderckt1_3.
                                            adderckt1          1.00 
      201 x_mms.x_test1.x_adder4_1.x_adderckt2_3.
                                            adderckt2          1.00 
      202 x_mms.x_test1.x_adder4_1.x_mybuffer2.
                                            mybuffer           1.00 
      203 x_mms.x_test1.x_adder4_1.x_and2_2.
                                            and2               1.00 
      204 x_mms.x_test1.x_adder4_1.x_and3_1.
                                            and3               1.00 
      205 x_mms.x_test1.x_adder4_1.x_nor3_1.
                                            nor3               1.00 
      206 x_mms.x_test1.x_adder4_1.x_xor2_3.
                                            xor2               1.00 
      207 x_mms.x_test1.x_adder4_1.x_adderckt1_4.
                                            adderckt1          1.00 
      208 x_mms.x_test1.x_adder4_1.x_adderckt2_4.
                                            adderckt2          1.00 
      209 x_mms.x_test1.x_adder4_1.x_mybuffer3.
                                            mybuffer           1.00 
      210 x_mms.x_test1.x_adder4_1.x_and2_3.
                                            and2               1.00 
      211 x_mms.x_test1.x_adder4_1.x_and3_2.
                                            and3               1.00 
      212 x_mms.x_test1.x_adder4_1.x_and4_1.
                                            and4               1.00 
      213 x_mms.x_test1.x_adder4_1.x_nor4_1.
                                            nor4               1.00 
      214 x_mms.x_test1.x_adder4_1.x_xor2_4.
                                            xor2               1.00 
      215 x_mms.x_test1.x_adder4_1.x_mybuffer4.
                                            mybuffer           1.00 
      216 x_mms.x_test1.x_adder4_1.x_and2_4.
                                            and2               1.00 
      217 x_mms.x_test1.x_adder4_1.x_and3_3.
                                            and3               1.00 
      218 x_mms.x_test1.x_adder4_1.x_and4_2.
                                            and4               1.00 
      219 x_mms.x_test1.x_adder4_1.x_and5_1.
                                            and5               1.00 
      220 x_mms.x_test1.x_adder4_1.x_nor5_1.
                                            nor5               1.00 
      221 x_mms.x_test1.x_adder4_2.x_inverter1.
                                            inverter           1.00 
      222 x_mms.x_test1.x_adder4_2.x_inverter2.
                                            inverter           1.00 
      223 x_mms.x_test1.x_adder4_2.x_adderckt1_1.
                                            adderckt1          1.00 
      224 x_mms.x_test1.x_adder4_2.x_adderckt2_1.
                                            adderckt2          1.00 
      225 x_mms.x_test1.x_adder4_2.x_xor2_1.
                                            xor2               1.00 
      226 x_mms.x_test1.x_adder4_2.x_adderckt1_2.
                                            adderckt1          1.00 
      227 x_mms.x_test1.x_adder4_2.x_adderckt2_2.
                                            adderckt2          1.00 
      228 x_mms.x_test1.x_adder4_2.x_mybuffer1.
                                            mybuffer           1.00 
      229 x_mms.x_test1.x_adder4_2.x_and2_1.
                                            and2               1.00 
      230 x_mms.x_test1.x_adder4_2.x_nor2_1.
                                            nor2               1.00 
      231 x_mms.x_test1.x_adder4_2.x_xor2_2.
                                            xor2               1.00 
      232 x_mms.x_test1.x_adder4_2.x_adderckt1_3.
                                            adderckt1          1.00 
      233 x_mms.x_test1.x_adder4_2.x_adderckt2_3.
                                            adderckt2          1.00 
      234 x_mms.x_test1.x_adder4_2.x_mybuffer2.
                                            mybuffer           1.00 
      235 x_mms.x_test1.x_adder4_2.x_and2_2.
                                            and2               1.00 
      236 x_mms.x_test1.x_adder4_2.x_and3_1.
                                            and3               1.00 
      237 x_mms.x_test1.x_adder4_2.x_nor3_1.
                                            nor3               1.00 
      238 x_mms.x_test1.x_adder4_2.x_xor2_3.
                                            xor2               1.00 
      239 x_mms.x_test1.x_adder4_2.x_adderckt1_4.
                                            adderckt1          1.00 
      240 x_mms.x_test1.x_adder4_2.x_adderckt2_4.
                                            adderckt2          1.00 
      241 x_mms.x_test1.x_adder4_2.x_mybuffer3.
                                            mybuffer           1.00 
      242 x_mms.x_test1.x_adder4_2.x_and2_3.
                                            and2               1.00 
      243 x_mms.x_test1.x_adder4_2.x_and3_2.
                                            and3               1.00 
      244 x_mms.x_test1.x_adder4_2.x_and4_1.
                                            and4               1.00 
      245 x_mms.x_test1.x_adder4_2.x_nor4_1.
                                            nor4               1.00 
      246 x_mms.x_test1.x_adder4_2.x_xor2_4.
                                            xor2               1.00 
      247 x_mms.x_test1.x_adder4_2.x_mybuffer4.
                                            mybuffer           1.00 
      248 x_mms.x_test1.x_adder4_2.x_and2_4.
                                            and2               1.00 
      249 x_mms.x_test1.x_adder4_2.x_and3_3.
                                            and3               1.00 
      250 x_mms.x_test1.x_adder4_2.x_and4_2.
                                            and4               1.00 
      251 x_mms.x_test1.x_adder4_2.x_and5_1.
                                            and5               1.00 
      252 x_mms.x_test1.x_adder4_2.x_nor5_1.
                                            nor5               1.00 
      253 x_mms.x_test1.x_adder4_revise_1.x_inverter1.
                                            inverter           1.00 
      254 x_mms.x_test1.x_adder4_revise_1.x_inverter2.
                                            inverter           1.00 
      255 x_mms.x_test1.x_adder4_revise_1.x_adderckt1_1.
                                            adderckt1          1.00 
      256 x_mms.x_test1.x_adder4_revise_1.x_adderckt2_1.
                                            adderckt2          1.00 
      257 x_mms.x_test1.x_adder4_revise_1.x_xor2_1.
                                            xor2               1.00 
      258 x_mms.x_test1.x_adder4_revise_1.x_adderckt1_2.
                                            adderckt1          1.00 
      259 x_mms.x_test1.x_adder4_revise_1.x_adderckt2_2.
                                            adderckt2          1.00 
      260 x_mms.x_test1.x_adder4_revise_1.x_mybuffer1.
                                            mybuffer           1.00 
      261 x_mms.x_test1.x_adder4_revise_1.x_and2_1.
                                            and2               1.00 
      262 x_mms.x_test1.x_adder4_revise_1.x_nor2_1.
                                            nor2               1.00 
      263 x_mms.x_test1.x_adder4_revise_1.x_xor2_2.
                                            xor2               1.00 
      264 x_mms.x_test1.x_adder4_revise_1.x_adderckt1_3.
                                            adderckt1          1.00 
      265 x_mms.x_test1.x_adder4_revise_1.x_adderckt2_3.
                                            adderckt2          1.00 
      266 x_mms.x_test1.x_adder4_revise_1.x_mybuffer2.
                                            mybuffer           1.00 
      267 x_mms.x_test1.x_adder4_revise_1.x_and2_2.
                                            and2               1.00 
      268 x_mms.x_test1.x_adder4_revise_1.x_and3_1.
                                            and3               1.00 
      269 x_mms.x_test1.x_adder4_revise_1.x_nor3_1.
                                            nor3               1.00 
      270 x_mms.x_test1.x_adder4_revise_1.x_xor2_3.
                                            xor2               1.00 
      271 x_mms.x_test1.x_adder4_revise_1.x_adderckt1_4.
                                            adderckt1          1.00 
      272 x_mms.x_test1.x_adder4_revise_1.x_adderckt2_4.
                                            adderckt2          1.00 
      273 x_mms.x_test1.x_adder4_revise_1.x_mybuffer3.
                                            mybuffer           1.00 
      274 x_mms.x_test1.x_adder4_revise_1.x_and2_3.
                                            and2               1.00 
      275 x_mms.x_test1.x_adder4_revise_1.x_and3_2.
                                            and3               1.00 
      276 x_mms.x_test1.x_adder4_revise_1.x_and4_1.
                                            and4               1.00 
      277 x_mms.x_test1.x_adder4_revise_1.x_nor4_1.
                                            nor4               1.00 
      278 x_mms.x_test1.x_adder4_revise_1.x_xor2_4.
                                            xor2               1.00 
      279 x_mms.x_test2.x_mux2to1_1.x_inverter1.
                                            inverter           1.00 
      280 x_mms.x_test2.x_mux2to1_1.x_transgate1.
                                            transgate          1.00 
      281 x_mms.x_test2.x_mux2to1_1.x_transgate2.
                                            transgate          1.00 
      282 x_mms.x_test2.x_mux2to1_1.x_mybuffer1.
                                            mybuffer           1.00 
      283 x_mms.x_test2.x_mux2to1_2.x_inverter1.
                                            inverter           1.00 
      284 x_mms.x_test2.x_mux2to1_2.x_transgate1.
                                            transgate          1.00 
      285 x_mms.x_test2.x_mux2to1_2.x_transgate2.
                                            transgate          1.00 
      286 x_mms.x_test2.x_mux2to1_2.x_mybuffer1.
                                            mybuffer           1.00 
      287 x_mms.x_test2.x_mux8to4_1.x_mux2to1_1.
                                            mux2to1            1.00 
      288 x_mms.x_test2.x_mux8to4_1.x_mux2to1_2.
                                            mux2to1            1.00 
      289 x_mms.x_test2.x_mux8to4_1.x_mux2to1_3.
                                            mux2to1            1.00 
      290 x_mms.x_test2.x_mux8to4_1.x_mux2to1_4.
                                            mux2to1            1.00 
      291 x_mms.x_test2.x_mux16to8_1.x_mux8to4_1.
                                            mux8to4            1.00 
      292 x_mms.x_test2.x_mux16to8_1.x_mux8to4_2.
                                            mux8to4            1.00 
      293 x_mms.x_test3.x_mux2to1_1.x_inverter1.
                                            inverter           1.00 
      294 x_mms.x_test3.x_mux2to1_1.x_transgate1.
                                            transgate          1.00 
      295 x_mms.x_test3.x_mux2to1_1.x_transgate2.
                                            transgate          1.00 
      296 x_mms.x_test3.x_mux2to1_1.x_mybuffer1.
                                            mybuffer           1.00 
      297 x_mms.x_test3.x_mux2to1_2.x_inverter1.
                                            inverter           1.00 
      298 x_mms.x_test3.x_mux2to1_2.x_transgate1.
                                            transgate          1.00 
      299 x_mms.x_test3.x_mux2to1_2.x_transgate2.
                                            transgate          1.00 
      300 x_mms.x_test3.x_mux2to1_2.x_mybuffer1.
                                            mybuffer           1.00 
      301 x_mms.x_test3.x_mux8to4_1.x_mux2to1_1.
                                            mux2to1            1.00 
      302 x_mms.x_test3.x_mux8to4_1.x_mux2to1_2.
                                            mux2to1            1.00 
      303 x_mms.x_test3.x_mux8to4_1.x_mux2to1_3.
                                            mux2to1            1.00 
      304 x_mms.x_test3.x_mux8to4_1.x_mux2to1_4.
                                            mux2to1            1.00 
      305 x_mms.x_test3.x_mux16to8_1.x_mux8to4_1.
                                            mux8to4            1.00 
      306 x_mms.x_test3.x_mux16to8_1.x_mux8to4_2.
                                            mux8to4            1.00 
      307 x_mms.x_test4.x_d_pulsetrigger1.x_inverter1.
                                            inverter           1.00 
      308 x_mms.x_test4.x_d_pulsetrigger1.x_inverter2.
                                            inverter           1.00 
      309 x_mms.x_test4.x_d_pulsetrigger1.x_d_latch1.
                                            d_latch            1.00 
      310 x_mms.x_test4.x_d_pulsetrigger1.x_transgate1.
                                            transgate          1.00 
      311 x_mms.x_test4.x_d_pulsetrigger1.x_transgate2.
                                            transgate          1.00 
      312 x_mms.x_test4.x_d_pulsetrigger1.x_nor2_1.
                                            nor2               1.00 
      313 x_mms.x_test4.x_d_pulsetrigger1.x_inverter3.
                                            inverter           1.00 
      314 x_mms.x_test4.x_d_pulsetrigger2.x_inverter1.
                                            inverter           1.00 
      315 x_mms.x_test4.x_d_pulsetrigger2.x_inverter2.
                                            inverter           1.00 
      316 x_mms.x_test4.x_d_pulsetrigger2.x_d_latch1.
                                            d_latch            1.00 
      317 x_mms.x_test4.x_d_pulsetrigger2.x_transgate1.
                                            transgate          1.00 
      318 x_mms.x_test4.x_d_pulsetrigger2.x_transgate2.
                                            transgate          1.00 
      319 x_mms.x_test4.x_d_pulsetrigger2.x_nor2_1.
                                            nor2               1.00 
      320 x_mms.x_test4.x_d_pulsetrigger2.x_inverter3.
                                            inverter           1.00 
      321 x_mms.x_test4.x_reg4_1.x_d_pulsetrigger1.
                                            d_pulsetrigger     1.00 
      322 x_mms.x_test4.x_reg4_1.x_d_pulsetrigger2.
                                            d_pulsetrigger     1.00 
      323 x_mms.x_test4.x_reg4_1.x_d_pulsetrigger3.
                                            d_pulsetrigger     1.00 
      324 x_mms.x_test4.x_reg4_1.x_d_pulsetrigger4.
                                            d_pulsetrigger     1.00 
      325 x_mms.x_test4.x_reg8_1.x_reg4_1.
                                            reg4               1.00 
      326 x_mms.x_test4.x_reg8_1.x_reg4_2.
                                            reg4               1.00 
      327 x_mms.x_test5.x_comparator4_1.x_nand2_1.
                                            nand2              1.00 
      328 x_mms.x_test5.x_comparator4_1.x_nand2_2.
                                            nand2              1.00 
      329 x_mms.x_test5.x_comparator4_1.x_nand2_3.
                                            nand2              1.00 
      330 x_mms.x_test5.x_comparator4_1.x_nand2_4.
                                            nand2              1.00 
      331 x_mms.x_test5.x_comparator4_1.x_capckt1_1.
                                            capckt1            1.00 
      332 x_mms.x_test5.x_comparator4_1.x_capckt1_2.
                                            capckt1            1.00 
      333 x_mms.x_test5.x_comparator4_1.x_capckt1_3.
                                            capckt1            1.00 
      334 x_mms.x_test5.x_comparator4_1.x_capckt1_4.
                                            capckt1            1.00 
      335 x_mms.x_test5.x_comparator4_1.x_and2_1.
                                            and2               1.00 
      336 x_mms.x_test5.x_comparator4_1.x_and3_1.
                                            and3               1.00 
      337 x_mms.x_test5.x_comparator4_1.x_and4_1.
                                            and4               1.00 
      338 x_mms.x_test5.x_comparator4_1.x_and5_1.
                                            and5               1.00 
      339 x_mms.x_test5.x_comparator4_1.x_and5_6.
                                            and5               1.00 
      340 x_mms.x_test5.x_comparator4_1.x_and4_2.
                                            and4               1.00 
      341 x_mms.x_test5.x_comparator4_1.x_and3_2.
                                            and3               1.00 
      342 x_mms.x_test5.x_comparator4_1.x_and2_2.
                                            and2               1.00 
      343 x_mms.x_test5.x_comparator4_1.x_capckt2_1.
                                            capckt2_revise     1.00 
      344 x_mms.x_test5.x_comparator4_1.x_capckt2_2.
                                            capckt2_revise     1.00 
      385 x_mms.x_test5.x_and5_5.x_nand3_1.
                                            nand3              1.00 
      386 x_mms.x_test5.x_and5_5.x_nand2_1.
                                            nand2              1.00 
      387 x_mms.x_test5.x_and5_5.x_nor2_1.
                                            nor2               1.00 
      388 x_mms.x_test5.x_and5_6.x_nand3_1.
                                            nand3              1.00 
      389 x_mms.x_test5.x_and5_6.x_nand2_1.
                                            nand2              1.00 
      390 x_mms.x_test5.x_and5_6.x_nor2_1.
                                            nor2               1.00 
      391 x_mms.x_test5.x_and4_2.x_nand2_1.
                                            nand2              1.00 
      392 x_mms.x_test5.x_and4_2.x_nand2_2.
                                            nand2              1.00 
      393 x_mms.x_test5.x_and4_2.x_nor2_1.
                                            nor2               1.00 
      394 x_mms.x_test5.x_and3_2.x_nand3_1.
                                            nand3              1.00 
      395 x_mms.x_test5.x_and3_2.x_inverter.
                                            inverter           1.00 
      396 x_mms.x_test5.x_and2_2.x_nand2. nand2              1.00 
      397 x_mms.x_test5.x_and2_2.x_inverter.
                                            inverter           1.00 
      398 x_mms.x_test5.x_capckt2_2.x_nor3_1.
                                            nor3               1.00 
      399 x_mms.x_test5.x_capckt2_2.x_nor3_2.
                                            nor2               1.00 
      400 x_mms.x_test5.x_capckt2_2.x_and2_1.
                                            and2               1.00 
      401 x_mms.x_test6.x_mux8to4_1.x_mux2to1_1.
                                            mux2to1            1.00 
      402 x_mms.x_test6.x_mux8to4_1.x_mux2to1_2.
                                            mux2to1            1.00 
      403 x_mms.x_test6.x_mux8to4_1.x_mux2to1_3.
                                            mux2to1            1.00 
      404 x_mms.x_test6.x_mux8to4_1.x_mux2to1_4.
                                            mux2to1            1.00 
      405 x_mms.x_test6.x_mux8to4_2.x_mux2to1_1.
                                            mux2to1            1.00 
      406 x_mms.x_test6.x_mux8to4_2.x_mux2to1_2.
                                            mux2to1            1.00 
      407 x_mms.x_test6.x_mux8to4_2.x_mux2to1_3.
                                            mux2to1            1.00 
      408 x_mms.x_test6.x_mux8to4_2.x_mux2to1_4.
                                            mux2to1            1.00 
      409 x_mms.x_test7.x_mux8to4_1.x_mux2to1_1.
                                            mux2to1            1.00 
      410 x_mms.x_test7.x_mux8to4_1.x_mux2to1_2.
                                            mux2to1            1.00 
      411 x_mms.x_test7.x_mux8to4_1.x_mux2to1_3.
                                            mux2to1            1.00 
      412 x_mms.x_test7.x_mux8to4_1.x_mux2to1_4.
                                            mux2to1            1.00 
      413 x_mms.x_test7.x_mux8to4_2.x_mux2to1_1.
                                            mux2to1            1.00 
      414 x_mms.x_test7.x_mux8to4_2.x_mux2to1_2.
                                            mux2to1            1.00 
      415 x_mms.x_test7.x_mux8to4_2.x_mux2to1_3.
                                            mux2to1            1.00 
      416 x_mms.x_test7.x_mux8to4_2.x_mux2to1_4.
                                            mux2to1            1.00 
      417 x_mms.x_test8.x_mux8to4_1.x_mux2to1_1.
                                            mux2to1            1.00 
      418 x_mms.x_test8.x_mux8to4_1.x_mux2to1_2.
                                            mux2to1            1.00 
      419 x_mms.x_test8.x_mux8to4_1.x_mux2to1_3.
                                            mux2to1            1.00 
      420 x_mms.x_test8.x_mux8to4_1.x_mux2to1_4.
                                            mux2to1            1.00 
      421 x_mms.x_test8.x_mux8to4_2.x_mux2to1_1.
                                            mux2to1            1.00 
      422 x_mms.x_test8.x_mux8to4_2.x_mux2to1_2.
                                            mux2to1            1.00 
      423 x_mms.x_test8.x_mux8to4_2.x_mux2to1_3.
                                            mux2to1            1.00 
      424 x_mms.x_test8.x_mux8to4_2.x_mux2to1_4.
                                            mux2to1            1.00 
      425 x_mms.x_test9.x_reg4_1.x_d_pulsetrigger1.
                                            d_pulsetrigger     1.00 
      426 x_mms.x_test9.x_reg4_1.x_d_pulsetrigger2.
                                            d_pulsetrigger     1.00 
      427 x_mms.x_test9.x_reg4_1.x_d_pulsetrigger3.
                                            d_pulsetrigger     1.00 
      428 x_mms.x_test9.x_reg4_1.x_d_pulsetrigger4.
                                            d_pulsetrigger     1.00 
      429 x_mms.x_test9.x_reg4_2.x_d_pulsetrigger1.
                                            d_pulsetrigger     1.00 
      430 x_mms.x_test9.x_reg4_2.x_d_pulsetrigger2.
                                            d_pulsetrigger     1.00 
      431 x_mms.x_test9.x_reg4_2.x_d_pulsetrigger3.
                                            d_pulsetrigger     1.00 
      432 x_mms.x_test9.x_reg4_2.x_d_pulsetrigger4.
                                            d_pulsetrigger     1.00 
      433 x_mms.x_test10.x_comparator4_1.x_nand2_1.
                                            nand2              1.00 
      434 x_mms.x_test10.x_comparator4_1.x_nand2_2.
                                            nand2              1.00 
      435 x_mms.x_test10.x_comparator4_1.x_nand2_3.
                                            nand2              1.00 
      436 x_mms.x_test10.x_comparator4_1.x_nand2_4.
                                            nand2              1.00 
      437 x_mms.x_test10.x_comparator4_1.x_capckt1_1.
                                            capckt1            1.00 
      438 x_mms.x_test10.x_comparator4_1.x_capckt1_2.
                                            capckt1            1.00 
      439 x_mms.x_test10.x_comparator4_1.x_capckt1_3.
                                            capckt1            1.00 
      440 x_mms.x_test10.x_comparator4_1.x_capckt1_4.
                                            capckt1            1.00 
      441 x_mms.x_test10.x_comparator4_1.x_and2_1.
                                            and2               1.00 
      442 x_mms.x_test10.x_comparator4_1.x_and3_1.
                                            and3               1.00 
      443 x_mms.x_test10.x_comparator4_1.x_and4_1.
                                            and4               1.00 
      444 x_mms.x_test10.x_comparator4_1.x_and5_1.
                                            and5               1.00 
      445 x_mms.x_test10.x_comparator4_1.x_and5_6.
                                            and5               1.00 
      446 x_mms.x_test10.x_comparator4_1.x_and4_2.
                                            and4               1.00 
      447 x_mms.x_test10.x_comparator4_1.x_and3_2.
                                            and3               1.00 
      448 x_mms.x_test10.x_comparator4_1.x_and2_2.
                                            and2               1.00 
      449 x_mms.x_test10.x_comparator4_1.x_capckt2_1.
                                            capckt2_revise     1.00 
      450 x_mms.x_test10.x_comparator4_1.x_capckt2_2.
                                            capckt2_revise     1.00 
      491 x_mms.x_test10.x_and5_5.x_nand3_1.
                                            nand3              1.00 
      492 x_mms.x_test10.x_and5_5.x_nand2_1.
                                            nand2              1.00 
      493 x_mms.x_test10.x_and5_5.x_nor2_1.
                                            nor2               1.00 
      494 x_mms.x_test10.x_and5_6.x_nand3_1.
                                            nand3              1.00 
      495 x_mms.x_test10.x_and5_6.x_nand2_1.
                                            nand2              1.00 
      496 x_mms.x_test10.x_and5_6.x_nor2_1.
                                            nor2               1.00 
      497 x_mms.x_test10.x_and4_2.x_nand2_1.
                                            nand2              1.00 
      498 x_mms.x_test10.x_and4_2.x_nand2_2.
                                            nand2              1.00 
      499 x_mms.x_test10.x_and4_2.x_nor2_1.
                                            nor2               1.00 
      500 x_mms.x_test10.x_and3_2.x_nand3_1.
                                            nand3              1.00 
      501 x_mms.x_test10.x_and3_2.x_inverter.
                                            inverter           1.00 
      502 x_mms.x_test10.x_and2_2.x_nand2.
                                            nand2              1.00 
      503 x_mms.x_test10.x_and2_2.x_inverter.
                                            inverter           1.00 
      504 x_mms.x_test10.x_capckt2_2.x_nor3_1.
                                            nor3               1.00 
      505 x_mms.x_test10.x_capckt2_2.x_nor3_2.
                                            nor2               1.00 
      506 x_mms.x_test10.x_capckt2_2.x_and2_1.
                                            and2               1.00 
      507 x_mms.x_test11.x_mux8to4_1.x_mux2to1_1.
                                            mux2to1            1.00 
      508 x_mms.x_test11.x_mux8to4_1.x_mux2to1_2.
                                            mux2to1            1.00 
      509 x_mms.x_test11.x_mux8to4_1.x_mux2to1_3.
                                            mux2to1            1.00 
      510 x_mms.x_test11.x_mux8to4_1.x_mux2to1_4.
                                            mux2to1            1.00 
      511 x_mms.x_test11.x_mux8to4_2.x_mux2to1_1.
                                            mux2to1            1.00 
      512 x_mms.x_test11.x_mux8to4_2.x_mux2to1_2.
                                            mux2to1            1.00 
      513 x_mms.x_test11.x_mux8to4_2.x_mux2to1_3.
                                            mux2to1            1.00 
      514 x_mms.x_test11.x_mux8to4_2.x_mux2to1_4.
                                            mux2to1            1.00 
      515 x_mms.x_test12.x_mux8to4_1.x_mux2to1_1.
                                            mux2to1            1.00 
      516 x_mms.x_test12.x_mux8to4_1.x_mux2to1_2.
                                            mux2to1            1.00 
      517 x_mms.x_test12.x_mux8to4_1.x_mux2to1_3.
                                            mux2to1            1.00 
      518 x_mms.x_test12.x_mux8to4_1.x_mux2to1_4.
                                            mux2to1            1.00 
      519 x_mms.x_test12.x_mux8to4_2.x_mux2to1_1.
                                            mux2to1            1.00 
      520 x_mms.x_test12.x_mux8to4_2.x_mux2to1_2.
                                            mux2to1            1.00 
      521 x_mms.x_test12.x_mux8to4_2.x_mux2to1_3.
                                            mux2to1            1.00 
      522 x_mms.x_test12.x_mux8to4_2.x_mux2to1_4.
                                            mux2to1            1.00 
      523 x_mms.x_test13.x_mux8to4_1.x_mux2to1_1.
                                            mux2to1            1.00 
      524 x_mms.x_test13.x_mux8to4_1.x_mux2to1_2.
                                            mux2to1            1.00 
      525 x_mms.x_test13.x_mux8to4_1.x_mux2to1_3.
                                            mux2to1            1.00 
      526 x_mms.x_test13.x_mux8to4_1.x_mux2to1_4.
                                            mux2to1            1.00 
      527 x_mms.x_test13.x_mux8to4_2.x_mux2to1_1.
                                            mux2to1            1.00 
      528 x_mms.x_test13.x_mux8to4_2.x_mux2to1_2.
                                            mux2to1            1.00 
      529 x_mms.x_test13.x_mux8to4_2.x_mux2to1_3.
                                            mux2to1            1.00 
      530 x_mms.x_test13.x_mux8to4_2.x_mux2to1_4.
                                            mux2to1            1.00 
      531 x_mms.x_test14.x_reg4_1.x_d_pulsetrigger1.
                                            d_pulsetrigger     1.00 
      532 x_mms.x_test14.x_reg4_1.x_d_pulsetrigger2.
                                            d_pulsetrigger     1.00 
      533 x_mms.x_test14.x_reg4_1.x_d_pulsetrigger3.
                                            d_pulsetrigger     1.00 
      534 x_mms.x_test14.x_reg4_1.x_d_pulsetrigger4.
                                            d_pulsetrigger     1.00 
      535 x_mms.x_test14.x_reg4_2.x_d_pulsetrigger1.
                                            d_pulsetrigger     1.00 
      536 x_mms.x_test14.x_reg4_2.x_d_pulsetrigger2.
                                            d_pulsetrigger     1.00 
      537 x_mms.x_test14.x_reg4_2.x_d_pulsetrigger3.
                                            d_pulsetrigger     1.00 
      538 x_mms.x_test14.x_reg4_2.x_d_pulsetrigger4.
                                            d_pulsetrigger     1.00 
      539 x_mms.x_test15.x_mux8to4_1.x_mux2to1_1.
                                            mux2to1            1.00 
      540 x_mms.x_test15.x_mux8to4_1.x_mux2to1_2.
                                            mux2to1            1.00 
      541 x_mms.x_test15.x_mux8to4_1.x_mux2to1_3.
                                            mux2to1            1.00 
      542 x_mms.x_test15.x_mux8to4_1.x_mux2to1_4.
                                            mux2to1            1.00 
      543 x_mms.x_test15.x_mux8to4_2.x_mux2to1_1.
                                            mux2to1            1.00 
      544 x_mms.x_test15.x_mux8to4_2.x_mux2to1_2.
                                            mux2to1            1.00 
      545 x_mms.x_test15.x_mux8to4_2.x_mux2to1_3.
                                            mux2to1            1.00 
      546 x_mms.x_test15.x_mux8to4_2.x_mux2to1_4.
                                            mux2to1            1.00 
      547 x_mms.x_test1.x_ha1_1.x_xor2_1.x_nand2_1.
                                            nand2              1.00 
      548 x_mms.x_test1.x_ha1_1.x_xor2_1.x_nand2_2.
                                            nand2              1.00 
      549 x_mms.x_test1.x_ha1_1.x_xor2_1.x_nand2_3.
                                            nand2              1.00 
      550 x_mms.x_test1.x_ha1_1.x_xor2_1.x_nand2_4.
                                            nand2              1.00 
      551 x_mms.x_test1.x_ha1_1.x_and2_1.x_nand2.
                                            nand2              1.00 
      552 x_mms.x_test1.x_ha1_1.x_and2_1.x_inverter.
                                            inverter           1.00 
      587 x_mms.x_test1.x_fa1_1.x_and4_1.x_nand2_1.
                                            nand2              1.00 
      588 x_mms.x_test1.x_fa1_1.x_and4_1.x_nand2_2.
                                            nand2              1.00 
      589 x_mms.x_test1.x_fa1_1.x_and4_1.x_nor2_1.
                                            nor2               1.00 
      594 x_mms.x_test1.x_adder4_1.x_adderckt1_1.x_nand2_1.
                                            nand2              1.00 
      595 x_mms.x_test1.x_adder4_1.x_adderckt1_1.x_nor2_1.
                                            nor2               1.00 
      596 x_mms.x_test1.x_adder4_1.x_adderckt2_1.x_inverter1.
                                            inverter           1.00 
      597 x_mms.x_test1.x_adder4_1.x_adderckt2_1.x_and2_1.
                                            and2               1.00 
      598 x_mms.x_test1.x_adder4_1.x_xor2_1.x_nand2_1.
                                            nand2              1.00 
      599 x_mms.x_test1.x_adder4_1.x_xor2_1.x_nand2_2.
                                            nand2              1.00 
      600 x_mms.x_test1.x_adder4_1.x_xor2_1.x_nand2_3.
                                            nand2              1.00 
      601 x_mms.x_test1.x_adder4_1.x_xor2_1.x_nand2_4.
                                            nand2              1.00 
      602 x_mms.x_test1.x_adder4_1.x_adderckt1_2.x_nand2_1.
                                            nand2              1.00 
      603 x_mms.x_test1.x_adder4_1.x_adderckt1_2.x_nor2_1.
                                            nor2               1.00 
      604 x_mms.x_test1.x_adder4_1.x_adderckt2_2.x_inverter1.
                                            inverter           1.00 
      605 x_mms.x_test1.x_adder4_1.x_adderckt2_2.x_and2_1.
                                            and2               1.00 
      606 x_mms.x_test1.x_adder4_1.x_mybuffer1.x_inv1.
                                            inverter           1.00 
      607 x_mms.x_test1.x_adder4_1.x_mybuffer1.x_inv2.
                                            inverter           1.00 
      608 x_mms.x_test1.x_adder4_1.x_and2_1.x_nand2.
                                            nand2              1.00 
      609 x_mms.x_test1.x_adder4_1.x_and2_1.x_inverter.
                                            inverter           1.00 
      614 x_mms.x_test1.x_adder4_1.x_xor2_2.x_nand2_1.
                                            nand2              1.00 
      615 x_mms.x_test1.x_adder4_1.x_xor2_2.x_nand2_2.
                                            nand2              1.00 
      616 x_mms.x_test1.x_adder4_1.x_xor2_2.x_nand2_3.
                                            nand2              1.00 
      617 x_mms.x_test1.x_adder4_1.x_xor2_2.x_nand2_4.
                                            nand2              1.00 
      618 x_mms.x_test1.x_adder4_1.x_adderckt1_3.x_nand2_1.
                                            nand2              1.00 
      619 x_mms.x_test1.x_adder4_1.x_adderckt1_3.x_nor2_1.
                                            nor2               1.00 
      620 x_mms.x_test1.x_adder4_1.x_adderckt2_3.x_inverter1.
                                            inverter           1.00 
      621 x_mms.x_test1.x_adder4_1.x_adderckt2_3.x_and2_1.
                                            and2               1.00 
      622 x_mms.x_test1.x_adder4_1.x_mybuffer2.x_inv1.
                                            inverter           1.00 
      623 x_mms.x_test1.x_adder4_1.x_mybuffer2.x_inv2.
                                            inverter           1.00 
      624 x_mms.x_test1.x_adder4_1.x_and2_2.x_nand2.
                                            nand2              1.00 
      625 x_mms.x_test1.x_adder4_1.x_and2_2.x_inverter.
                                            inverter           1.00 
      626 x_mms.x_test1.x_adder4_1.x_and3_1.x_nand3_1.
                                            nand3              1.00 
      627 x_mms.x_test1.x_adder4_1.x_and3_1.x_inverter.
                                            inverter           1.00 
      634 x_mms.x_test1.x_adder4_1.x_xor2_3.x_nand2_1.
                                            nand2              1.00 
      635 x_mms.x_test1.x_adder4_1.x_xor2_3.x_nand2_2.
                                            nand2              1.00 
      636 x_mms.x_test1.x_adder4_1.x_xor2_3.x_nand2_3.
                                            nand2              1.00 
      637 x_mms.x_test1.x_adder4_1.x_xor2_3.x_nand2_4.
                                            nand2              1.00 
      638 x_mms.x_test1.x_adder4_1.x_adderckt1_4.x_nand2_1.
                                            nand2              1.00 
      639 x_mms.x_test1.x_adder4_1.x_adderckt1_4.x_nor2_1.
                                            nor2               1.00 
      640 x_mms.x_test1.x_adder4_1.x_adderckt2_4.x_inverter1.
                                            inverter           1.00 
      641 x_mms.x_test1.x_adder4_1.x_adderckt2_4.x_and2_1.
                                            and2               1.00 
      642 x_mms.x_test1.x_adder4_1.x_mybuffer3.x_inv1.
                                            inverter           1.00 
      643 x_mms.x_test1.x_adder4_1.x_mybuffer3.x_inv2.
                                            inverter           1.00 
      644 x_mms.x_test1.x_adder4_1.x_and2_3.x_nand2.
                                            nand2              1.00 
      645 x_mms.x_test1.x_adder4_1.x_and2_3.x_inverter.
                                            inverter           1.00 
      646 x_mms.x_test1.x_adder4_1.x_and3_2.x_nand3_1.
                                            nand3              1.00 
      647 x_mms.x_test1.x_adder4_1.x_and3_2.x_inverter.
                                            inverter           1.00 
      648 x_mms.x_test1.x_adder4_1.x_and4_1.x_nand2_1.
                                            nand2              1.00 
      649 x_mms.x_test1.x_adder4_1.x_and4_1.x_nand2_2.
                                            nand2              1.00 
      650 x_mms.x_test1.x_adder4_1.x_and4_1.x_nor2_1.
                                            nor2               1.00 
      651 x_mms.x_test1.x_adder4_1.x_nor4_1.x_nor2_1.
                                            nor2               1.00 
      652 x_mms.x_test1.x_adder4_1.x_nor4_1.x_nor2_2.
                                            nor2               1.00 
      653 x_mms.x_test1.x_adder4_1.x_nor4_1.x_and2_1.
                                            and2               1.00 
      654 x_mms.x_test1.x_adder4_1.x_xor2_4.x_nand2_1.
                                            nand2              1.00 
      655 x_mms.x_test1.x_adder4_1.x_xor2_4.x_nand2_2.
                                            nand2              1.00 
      656 x_mms.x_test1.x_adder4_1.x_xor2_4.x_nand2_3.
                                            nand2              1.00 
      657 x_mms.x_test1.x_adder4_1.x_xor2_4.x_nand2_4.
                                            nand2              1.00 
      658 x_mms.x_test1.x_adder4_1.x_mybuffer4.x_inv1.
                                            inverter           1.00 
      659 x_mms.x_test1.x_adder4_1.x_mybuffer4.x_inv2.
                                            inverter           1.00 
      660 x_mms.x_test1.x_adder4_1.x_and2_4.x_nand2.
                                            nand2              1.00 
      661 x_mms.x_test1.x_adder4_1.x_and2_4.x_inverter.
                                            inverter           1.00 
      662 x_mms.x_test1.x_adder4_1.x_and3_3.x_nand3_1.
                                            nand3              1.00 
      663 x_mms.x_test1.x_adder4_1.x_and3_3.x_inverter.
                                            inverter           1.00 
      664 x_mms.x_test1.x_adder4_1.x_and4_2.x_nand2_1.
                                            nand2              1.00 
      665 x_mms.x_test1.x_adder4_1.x_and4_2.x_nand2_2.
                                            nand2              1.00 
      666 x_mms.x_test1.x_adder4_1.x_and4_2.x_nor2_1.
                                            nor2               1.00 
      667 x_mms.x_test1.x_adder4_1.x_and5_1.x_nand3_1.
                                            nand3              1.00 
      668 x_mms.x_test1.x_adder4_1.x_and5_1.x_nand2_1.
                                            nand2              1.00 
      669 x_mms.x_test1.x_adder4_1.x_and5_1.x_nor2_1.
                                            nor2               1.00 
      670 x_mms.x_test1.x_adder4_1.x_nor5_1.x_nor2_1.
                                            nor2               1.00 
      671 x_mms.x_test1.x_adder4_1.x_nor5_1.x_nor3_1.
                                            nor3               1.00 
      672 x_mms.x_test1.x_adder4_1.x_nor5_1.x_and2_1.
                                            and2               1.00 
      677 x_mms.x_test1.x_adder4_2.x_adderckt1_1.x_nand2_1.
                                            nand2              1.00 
      678 x_mms.x_test1.x_adder4_2.x_adderckt1_1.x_nor2_1.
                                            nor2               1.00 
      679 x_mms.x_test1.x_adder4_2.x_adderckt2_1.x_inverter1.
                                            inverter           1.00 
      680 x_mms.x_test1.x_adder4_2.x_adderckt2_1.x_and2_1.
                                            and2               1.00 
      681 x_mms.x_test1.x_adder4_2.x_xor2_1.x_nand2_1.
                                            nand2              1.00 
      682 x_mms.x_test1.x_adder4_2.x_xor2_1.x_nand2_2.
                                            nand2              1.00 
      683 x_mms.x_test1.x_adder4_2.x_xor2_1.x_nand2_3.
                                            nand2              1.00 
      684 x_mms.x_test1.x_adder4_2.x_xor2_1.x_nand2_4.
                                            nand2              1.00 
      685 x_mms.x_test1.x_adder4_2.x_adderckt1_2.x_nand2_1.
                                            nand2              1.00 
      686 x_mms.x_test1.x_adder4_2.x_adderckt1_2.x_nor2_1.
                                            nor2               1.00 
      687 x_mms.x_test1.x_adder4_2.x_adderckt2_2.x_inverter1.
                                            inverter           1.00 
      688 x_mms.x_test1.x_adder4_2.x_adderckt2_2.x_and2_1.
                                            and2               1.00 
      689 x_mms.x_test1.x_adder4_2.x_mybuffer1.x_inv1.
                                            inverter           1.00 
      690 x_mms.x_test1.x_adder4_2.x_mybuffer1.x_inv2.
                                            inverter           1.00 
      691 x_mms.x_test1.x_adder4_2.x_and2_1.x_nand2.
                                            nand2              1.00 
      692 x_mms.x_test1.x_adder4_2.x_and2_1.x_inverter.
                                            inverter           1.00 
      697 x_mms.x_test1.x_adder4_2.x_xor2_2.x_nand2_1.
                                            nand2              1.00 
      698 x_mms.x_test1.x_adder4_2.x_xor2_2.x_nand2_2.
                                            nand2              1.00 
      699 x_mms.x_test1.x_adder4_2.x_xor2_2.x_nand2_3.
                                            nand2              1.00 
      700 x_mms.x_test1.x_adder4_2.x_xor2_2.x_nand2_4.
                                            nand2              1.00 
      701 x_mms.x_test1.x_adder4_2.x_adderckt1_3.x_nand2_1.
                                            nand2              1.00 
      702 x_mms.x_test1.x_adder4_2.x_adderckt1_3.x_nor2_1.
                                            nor2               1.00 
      703 x_mms.x_test1.x_adder4_2.x_adderckt2_3.x_inverter1.
                                            inverter           1.00 
      704 x_mms.x_test1.x_adder4_2.x_adderckt2_3.x_and2_1.
                                            and2               1.00 
      705 x_mms.x_test1.x_adder4_2.x_mybuffer2.x_inv1.
                                            inverter           1.00 
      706 x_mms.x_test1.x_adder4_2.x_mybuffer2.x_inv2.
                                            inverter           1.00 
      707 x_mms.x_test1.x_adder4_2.x_and2_2.x_nand2.
                                            nand2              1.00 
      708 x_mms.x_test1.x_adder4_2.x_and2_2.x_inverter.
                                            inverter           1.00 
      709 x_mms.x_test1.x_adder4_2.x_and3_1.x_nand3_1.
                                            nand3              1.00 
      710 x_mms.x_test1.x_adder4_2.x_and3_1.x_inverter.
                                            inverter           1.00 
      717 x_mms.x_test1.x_adder4_2.x_xor2_3.x_nand2_1.
                                            nand2              1.00 
      718 x_mms.x_test1.x_adder4_2.x_xor2_3.x_nand2_2.
                                            nand2              1.00 
      719 x_mms.x_test1.x_adder4_2.x_xor2_3.x_nand2_3.
                                            nand2              1.00 
      720 x_mms.x_test1.x_adder4_2.x_xor2_3.x_nand2_4.
                                            nand2              1.00 
      721 x_mms.x_test1.x_adder4_2.x_adderckt1_4.x_nand2_1.
                                            nand2              1.00 
      722 x_mms.x_test1.x_adder4_2.x_adderckt1_4.x_nor2_1.
                                            nor2               1.00 
      723 x_mms.x_test1.x_adder4_2.x_adderckt2_4.x_inverter1.
                                            inverter           1.00 
      724 x_mms.x_test1.x_adder4_2.x_adderckt2_4.x_and2_1.
                                            and2               1.00 
      725 x_mms.x_test1.x_adder4_2.x_mybuffer3.x_inv1.
                                            inverter           1.00 
      726 x_mms.x_test1.x_adder4_2.x_mybuffer3.x_inv2.
                                            inverter           1.00 
      727 x_mms.x_test1.x_adder4_2.x_and2_3.x_nand2.
                                            nand2              1.00 
      728 x_mms.x_test1.x_adder4_2.x_and2_3.x_inverter.
                                            inverter           1.00 
      729 x_mms.x_test1.x_adder4_2.x_and3_2.x_nand3_1.
                                            nand3              1.00 
      730 x_mms.x_test1.x_adder4_2.x_and3_2.x_inverter.
                                            inverter           1.00 
      731 x_mms.x_test1.x_adder4_2.x_and4_1.x_nand2_1.
                                            nand2              1.00 
      732 x_mms.x_test1.x_adder4_2.x_and4_1.x_nand2_2.
                                            nand2              1.00 
      733 x_mms.x_test1.x_adder4_2.x_and4_1.x_nor2_1.
                                            nor2               1.00 
      734 x_mms.x_test1.x_adder4_2.x_nor4_1.x_nor2_1.
                                            nor2               1.00 
      735 x_mms.x_test1.x_adder4_2.x_nor4_1.x_nor2_2.
                                            nor2               1.00 
      736 x_mms.x_test1.x_adder4_2.x_nor4_1.x_and2_1.
                                            and2               1.00 
      737 x_mms.x_test1.x_adder4_2.x_xor2_4.x_nand2_1.
                                            nand2              1.00 
      738 x_mms.x_test1.x_adder4_2.x_xor2_4.x_nand2_2.
                                            nand2              1.00 
      739 x_mms.x_test1.x_adder4_2.x_xor2_4.x_nand2_3.
                                            nand2              1.00 
      740 x_mms.x_test1.x_adder4_2.x_xor2_4.x_nand2_4.
                                            nand2              1.00 
      741 x_mms.x_test1.x_adder4_2.x_mybuffer4.x_inv1.
                                            inverter           1.00 
      742 x_mms.x_test1.x_adder4_2.x_mybuffer4.x_inv2.
                                            inverter           1.00 
      743 x_mms.x_test1.x_adder4_2.x_and2_4.x_nand2.
                                            nand2              1.00 
      744 x_mms.x_test1.x_adder4_2.x_and2_4.x_inverter.
                                            inverter           1.00 
      745 x_mms.x_test1.x_adder4_2.x_and3_3.x_nand3_1.
                                            nand3              1.00 
      746 x_mms.x_test1.x_adder4_2.x_and3_3.x_inverter.
                                            inverter           1.00 
      747 x_mms.x_test1.x_adder4_2.x_and4_2.x_nand2_1.
                                            nand2              1.00 
      748 x_mms.x_test1.x_adder4_2.x_and4_2.x_nand2_2.
                                            nand2              1.00 
      749 x_mms.x_test1.x_adder4_2.x_and4_2.x_nor2_1.
                                            nor2               1.00 
      750 x_mms.x_test1.x_adder4_2.x_and5_1.x_nand3_1.
                                            nand3              1.00 
      751 x_mms.x_test1.x_adder4_2.x_and5_1.x_nand2_1.
                                            nand2              1.00 
      752 x_mms.x_test1.x_adder4_2.x_and5_1.x_nor2_1.
                                            nor2               1.00 
      753 x_mms.x_test1.x_adder4_2.x_nor5_1.x_nor2_1.
                                            nor2               1.00 
      754 x_mms.x_test1.x_adder4_2.x_nor5_1.x_nor3_1.
                                            nor3               1.00 
      755 x_mms.x_test1.x_adder4_2.x_nor5_1.x_and2_1.
                                            and2               1.00 
      760 x_mms.x_test1.x_adder4_revise_1.x_adderckt1_1.x_nand2_1.
                                            nand2              1.00 
      761 x_mms.x_test1.x_adder4_revise_1.x_adderckt1_1.x_nor2_1.
                                            nor2               1.00 
      762 x_mms.x_test1.x_adder4_revise_1.x_adderckt2_1.x_inverter1.
                                            inverter           1.00 
      763 x_mms.x_test1.x_adder4_revise_1.x_adderckt2_1.x_and2_1.
                                            and2               1.00 
      764 x_mms.x_test1.x_adder4_revise_1.x_xor2_1.x_nand2_1.
                                            nand2              1.00 
      765 x_mms.x_test1.x_adder4_revise_1.x_xor2_1.x_nand2_2.
                                            nand2              1.00 
      766 x_mms.x_test1.x_adder4_revise_1.x_xor2_1.x_nand2_3.
                                            nand2              1.00 
      767 x_mms.x_test1.x_adder4_revise_1.x_xor2_1.x_nand2_4.
                                            nand2              1.00 
      768 x_mms.x_test1.x_adder4_revise_1.x_adderckt1_2.x_nand2_1.
                                            nand2              1.00 
      769 x_mms.x_test1.x_adder4_revise_1.x_adderckt1_2.x_nor2_1.
                                            nor2               1.00 
      770 x_mms.x_test1.x_adder4_revise_1.x_adderckt2_2.x_inverter1.
                                            inverter           1.00 
      771 x_mms.x_test1.x_adder4_revise_1.x_adderckt2_2.x_and2_1.
                                            and2               1.00 
      772 x_mms.x_test1.x_adder4_revise_1.x_mybuffer1.x_inv1.
                                            inverter           1.00 
      773 x_mms.x_test1.x_adder4_revise_1.x_mybuffer1.x_inv2.
                                            inverter           1.00 
      774 x_mms.x_test1.x_adder4_revise_1.x_and2_1.x_nand2.
                                            nand2              1.00 
      775 x_mms.x_test1.x_adder4_revise_1.x_and2_1.x_inverter.
                                            inverter           1.00 
      780 x_mms.x_test1.x_adder4_revise_1.x_xor2_2.x_nand2_1.
                                            nand2              1.00 
      781 x_mms.x_test1.x_adder4_revise_1.x_xor2_2.x_nand2_2.
                                            nand2              1.00 
      782 x_mms.x_test1.x_adder4_revise_1.x_xor2_2.x_nand2_3.
                                            nand2              1.00 
      783 x_mms.x_test1.x_adder4_revise_1.x_xor2_2.x_nand2_4.
                                            nand2              1.00 
      784 x_mms.x_test1.x_adder4_revise_1.x_adderckt1_3.x_nand2_1.
                                            nand2              1.00 
      785 x_mms.x_test1.x_adder4_revise_1.x_adderckt1_3.x_nor2_1.
                                            nor2               1.00 
      786 x_mms.x_test1.x_adder4_revise_1.x_adderckt2_3.x_inverter1.
                                            inverter           1.00 
      787 x_mms.x_test1.x_adder4_revise_1.x_adderckt2_3.x_and2_1.
                                            and2               1.00 
      788 x_mms.x_test1.x_adder4_revise_1.x_mybuffer2.x_inv1.
                                            inverter           1.00 
      789 x_mms.x_test1.x_adder4_revise_1.x_mybuffer2.x_inv2.
                                            inverter           1.00 
      790 x_mms.x_test1.x_adder4_revise_1.x_and2_2.x_nand2.
                                            nand2              1.00 
      791 x_mms.x_test1.x_adder4_revise_1.x_and2_2.x_inverter.
                                            inverter           1.00 
      792 x_mms.x_test1.x_adder4_revise_1.x_and3_1.x_nand3_1.
                                            nand3              1.00 
      793 x_mms.x_test1.x_adder4_revise_1.x_and3_1.x_inverter.
                                            inverter           1.00 
      800 x_mms.x_test1.x_adder4_revise_1.x_xor2_3.x_nand2_1.
                                            nand2              1.00 
      801 x_mms.x_test1.x_adder4_revise_1.x_xor2_3.x_nand2_2.
                                            nand2              1.00 
      802 x_mms.x_test1.x_adder4_revise_1.x_xor2_3.x_nand2_3.
                                            nand2              1.00 
      803 x_mms.x_test1.x_adder4_revise_1.x_xor2_3.x_nand2_4.
                                            nand2              1.00 
      804 x_mms.x_test1.x_adder4_revise_1.x_adderckt1_4.x_nand2_1.
                                            nand2              1.00 
      805 x_mms.x_test1.x_adder4_revise_1.x_adderckt1_4.x_nor2_1.
                                            nor2               1.00 
      806 x_mms.x_test1.x_adder4_revise_1.x_adderckt2_4.x_inverter1.
                                            inverter           1.00 
      807 x_mms.x_test1.x_adder4_revise_1.x_adderckt2_4.x_and2_1.
                                            and2               1.00 
      808 x_mms.x_test1.x_adder4_revise_1.x_mybuffer3.x_inv1.
                                            inverter           1.00 
      809 x_mms.x_test1.x_adder4_revise_1.x_mybuffer3.x_inv2.
                                            inverter           1.00 
      810 x_mms.x_test1.x_adder4_revise_1.x_and2_3.x_nand2.
                                            nand2              1.00 
      811 x_mms.x_test1.x_adder4_revise_1.x_and2_3.x_inverter.
                                            inverter           1.00 
      812 x_mms.x_test1.x_adder4_revise_1.x_and3_2.x_nand3_1.
                                            nand3              1.00 
      813 x_mms.x_test1.x_adder4_revise_1.x_and3_2.x_inverter.
                                            inverter           1.00 
      814 x_mms.x_test1.x_adder4_revise_1.x_and4_1.x_nand2_1.
                                            nand2              1.00 
      815 x_mms.x_test1.x_adder4_revise_1.x_and4_1.x_nand2_2.
                                            nand2              1.00 
      816 x_mms.x_test1.x_adder4_revise_1.x_and4_1.x_nor2_1.
                                            nor2               1.00 
      817 x_mms.x_test1.x_adder4_revise_1.x_nor4_1.x_nor2_1.
                                            nor2               1.00 
      818 x_mms.x_test1.x_adder4_revise_1.x_nor4_1.x_nor2_2.
                                            nor2               1.00 
      819 x_mms.x_test1.x_adder4_revise_1.x_nor4_1.x_and2_1.
                                            and2               1.00 
      820 x_mms.x_test1.x_adder4_revise_1.x_xor2_4.x_nand2_1.
                                            nand2              1.00 
      821 x_mms.x_test1.x_adder4_revise_1.x_xor2_4.x_nand2_2.
                                            nand2              1.00 
      822 x_mms.x_test1.x_adder4_revise_1.x_xor2_4.x_nand2_3.
                                            nand2              1.00 
      823 x_mms.x_test1.x_adder4_revise_1.x_xor2_4.x_nand2_4.
                                            nand2              1.00 
      830 x_mms.x_test2.x_mux2to1_1.x_mybuffer1.x_inv1.
                                            inverter           1.00 
      831 x_mms.x_test2.x_mux2to1_1.x_mybuffer1.x_inv2.
                                            inverter           1.00 
      838 x_mms.x_test2.x_mux2to1_2.x_mybuffer1.x_inv1.
                                            inverter           1.00 
      839 x_mms.x_test2.x_mux2to1_2.x_mybuffer1.x_inv2.
                                            inverter           1.00 
      840 x_mms.x_test2.x_mux8to4_1.x_mux2to1_1.x_inverter1.
                                            inverter           1.00 
      841 x_mms.x_test2.x_mux8to4_1.x_mux2to1_1.x_transgate1.
                                            transgate          1.00 
      842 x_mms.x_test2.x_mux8to4_1.x_mux2to1_1.x_transgate2.
                                            transgate          1.00 
      843 x_mms.x_test2.x_mux8to4_1.x_mux2to1_1.x_mybuffer1.
                                            mybuffer           1.00 
      844 x_mms.x_test2.x_mux8to4_1.x_mux2to1_2.x_inverter1.
                                            inverter           1.00 
      845 x_mms.x_test2.x_mux8to4_1.x_mux2to1_2.x_transgate1.
                                            transgate          1.00 
      846 x_mms.x_test2.x_mux8to4_1.x_mux2to1_2.x_transgate2.
                                            transgate          1.00 
      847 x_mms.x_test2.x_mux8to4_1.x_mux2to1_2.x_mybuffer1.
                                            mybuffer           1.00 
      848 x_mms.x_test2.x_mux8to4_1.x_mux2to1_3.x_inverter1.
                                            inverter           1.00 
      849 x_mms.x_test2.x_mux8to4_1.x_mux2to1_3.x_transgate1.
                                            transgate          1.00 
      850 x_mms.x_test2.x_mux8to4_1.x_mux2to1_3.x_transgate2.
                                            transgate          1.00 
      851 x_mms.x_test2.x_mux8to4_1.x_mux2to1_3.x_mybuffer1.
                                            mybuffer           1.00 
      852 x_mms.x_test2.x_mux8to4_1.x_mux2to1_4.x_inverter1.
                                            inverter           1.00 
      853 x_mms.x_test2.x_mux8to4_1.x_mux2to1_4.x_transgate1.
                                            transgate          1.00 
      854 x_mms.x_test2.x_mux8to4_1.x_mux2to1_4.x_transgate2.
                                            transgate          1.00 
      855 x_mms.x_test2.x_mux8to4_1.x_mux2to1_4.x_mybuffer1.
                                            mybuffer           1.00 
      856 x_mms.x_test2.x_mux16to8_1.x_mux8to4_1.x_mux2to1_1.
                                            mux2to1            1.00 
      857 x_mms.x_test2.x_mux16to8_1.x_mux8to4_1.x_mux2to1_2.
                                            mux2to1            1.00 
      858 x_mms.x_test2.x_mux16to8_1.x_mux8to4_1.x_mux2to1_3.
                                            mux2to1            1.00 
      859 x_mms.x_test2.x_mux16to8_1.x_mux8to4_1.x_mux2to1_4.
                                            mux2to1            1.00 
      860 x_mms.x_test2.x_mux16to8_1.x_mux8to4_2.x_mux2to1_1.
                                            mux2to1            1.00 
      861 x_mms.x_test2.x_mux16to8_1.x_mux8to4_2.x_mux2to1_2.
                                            mux2to1            1.00 
      862 x_mms.x_test2.x_mux16to8_1.x_mux8to4_2.x_mux2to1_3.
                                            mux2to1            1.00 
      863 x_mms.x_test2.x_mux16to8_1.x_mux8to4_2.x_mux2to1_4.
                                            mux2to1            1.00 
      870 x_mms.x_test3.x_mux2to1_1.x_mybuffer1.x_inv1.
                                            inverter           1.00 
      871 x_mms.x_test3.x_mux2to1_1.x_mybuffer1.x_inv2.
                                            inverter           1.00 
      878 x_mms.x_test3.x_mux2to1_2.x_mybuffer1.x_inv1.
                                            inverter           1.00 
      879 x_mms.x_test3.x_mux2to1_2.x_mybuffer1.x_inv2.
                                            inverter           1.00 
      880 x_mms.x_test3.x_mux8to4_1.x_mux2to1_1.x_inverter1.
                                            inverter           1.00 
      881 x_mms.x_test3.x_mux8to4_1.x_mux2to1_1.x_transgate1.
                                            transgate          1.00 
      882 x_mms.x_test3.x_mux8to4_1.x_mux2to1_1.x_transgate2.
                                            transgate          1.00 
      883 x_mms.x_test3.x_mux8to4_1.x_mux2to1_1.x_mybuffer1.
                                            mybuffer           1.00 
      884 x_mms.x_test3.x_mux8to4_1.x_mux2to1_2.x_inverter1.
                                            inverter           1.00 
      885 x_mms.x_test3.x_mux8to4_1.x_mux2to1_2.x_transgate1.
                                            transgate          1.00 
      886 x_mms.x_test3.x_mux8to4_1.x_mux2to1_2.x_transgate2.
                                            transgate          1.00 
      887 x_mms.x_test3.x_mux8to4_1.x_mux2to1_2.x_mybuffer1.
                                            mybuffer           1.00 
      888 x_mms.x_test3.x_mux8to4_1.x_mux2to1_3.x_inverter1.
                                            inverter           1.00 
      889 x_mms.x_test3.x_mux8to4_1.x_mux2to1_3.x_transgate1.
                                            transgate          1.00 
      890 x_mms.x_test3.x_mux8to4_1.x_mux2to1_3.x_transgate2.
                                            transgate          1.00 
      891 x_mms.x_test3.x_mux8to4_1.x_mux2to1_3.x_mybuffer1.
                                            mybuffer           1.00 
      892 x_mms.x_test3.x_mux8to4_1.x_mux2to1_4.x_inverter1.
                                            inverter           1.00 
      893 x_mms.x_test3.x_mux8to4_1.x_mux2to1_4.x_transgate1.
                                            transgate          1.00 
      894 x_mms.x_test3.x_mux8to4_1.x_mux2to1_4.x_transgate2.
                                            transgate          1.00 
      895 x_mms.x_test3.x_mux8to4_1.x_mux2to1_4.x_mybuffer1.
                                            mybuffer           1.00 
      896 x_mms.x_test3.x_mux16to8_1.x_mux8to4_1.x_mux2to1_1.
                                            mux2to1            1.00 
      897 x_mms.x_test3.x_mux16to8_1.x_mux8to4_1.x_mux2to1_2.
                                            mux2to1            1.00 
      898 x_mms.x_test3.x_mux16to8_1.x_mux8to4_1.x_mux2to1_3.
                                            mux2to1            1.00 
      899 x_mms.x_test3.x_mux16to8_1.x_mux8to4_1.x_mux2to1_4.
                                            mux2to1            1.00 
      900 x_mms.x_test3.x_mux16to8_1.x_mux8to4_2.x_mux2to1_1.
                                            mux2to1            1.00 
      901 x_mms.x_test3.x_mux16to8_1.x_mux8to4_2.x_mux2to1_2.
                                            mux2to1            1.00 
      902 x_mms.x_test3.x_mux16to8_1.x_mux8to4_2.x_mux2to1_3.
                                            mux2to1            1.00 
      903 x_mms.x_test3.x_mux16to8_1.x_mux8to4_2.x_mux2to1_4.
                                            mux2to1            1.00 
      908 x_mms.x_test4.x_d_pulsetrigger1.x_d_latch1.x_transgate1.
                                            transgate          1.00 
      909 x_mms.x_test4.x_d_pulsetrigger1.x_d_latch1.x_transgate2.
                                            transgate          1.00 
      910 x_mms.x_test4.x_d_pulsetrigger1.x_d_latch1.x_inverter1.
                                            inverter           1.00 
      911 x_mms.x_test4.x_d_pulsetrigger1.x_d_latch1.x_inverter2.
                                            inverter           1.00 
      926 x_mms.x_test4.x_d_pulsetrigger2.x_d_latch1.x_transgate1.
                                            transgate          1.00 
      927 x_mms.x_test4.x_d_pulsetrigger2.x_d_latch1.x_transgate2.
                                            transgate          1.00 
      928 x_mms.x_test4.x_d_pulsetrigger2.x_d_latch1.x_inverter1.
                                            inverter           1.00 
      929 x_mms.x_test4.x_d_pulsetrigger2.x_d_latch1.x_inverter2.
                                            inverter           1.00 
      940 x_mms.x_test4.x_reg4_1.x_d_pulsetrigger1.x_inverter1.
                                            inverter           1.00 
      941 x_mms.x_test4.x_reg4_1.x_d_pulsetrigger1.x_inverter2.
                                            inverter           1.00 
      942 x_mms.x_test4.x_reg4_1.x_d_pulsetrigger1.x_d_latch1.
                                            d_latch            1.00 
      943 x_mms.x_test4.x_reg4_1.x_d_pulsetrigger1.x_transgate1.
                                            transgate          1.00 
      944 x_mms.x_test4.x_reg4_1.x_d_pulsetrigger1.x_transgate2.
                                            transgate          1.00 
      945 x_mms.x_test4.x_reg4_1.x_d_pulsetrigger1.x_nor2_1.
                                            nor2               1.00 
      946 x_mms.x_test4.x_reg4_1.x_d_pulsetrigger1.x_inverter3.
                                            inverter           1.00 
      947 x_mms.x_test4.x_reg4_1.x_d_pulsetrigger2.x_inverter1.
                                            inverter           1.00 
      948 x_mms.x_test4.x_reg4_1.x_d_pulsetrigger2.x_inverter2.
[...]
 + 445:out1    =   1.8402u  445:out2    = 979.9993m  446:out1    =   1.1818u
 + 446:out2    = 979.9993m  447:out1    = 979.9990m  448:cmm     = 979.9993m
 + 449:out1    = 979.9992m  449:out2    =   1.4644u  450:out1    = 979.9992m
 + 450:out2    = 979.9992m  491:cmm1    = 821.3935n  491:cmm2    = 413.3458n
 + 492:cmm     = 355.4265n  493:cmmp    = 878.8630m  494:cmm1    = 832.0320m
 + 494:cmm2    = 284.9533n  495:cmm     = 833.0429m  496:cmmp    = 878.8628m
 + 497:cmm     = 355.4265n  498:cmm     = 833.0429m  499:cmmp    = 878.8627m
 + 500:cmm1    = 834.6939m  500:cmm2    = 797.8392m  502:cmm     = 833.0429m
 + 504:cmm1    = 979.9996m  504:cmm2    = 979.9991m  505:cmmp    = 979.9996m
 + 506:cmm     =   1.1781u  507:_sel    = 538.8923n  507:y       =   1.0498u
 + 508:_sel    = 539.2049n  508:y       =   2.6034u  509:_sel    = 538.8923n
 + 509:y       =   1.0498u  510:_sel    = 538.8923n  510:y       =   1.0498u
 + 511:_sel    = 538.8923n  511:y       =   1.0498u  512:_sel    = 538.8923n
 + 512:y       =   1.0499u  513:_sel    = 538.8923n  513:y       =   1.0498u
 + 514:_sel    = 539.2049n  514:y       =   2.6033u  515:_sel    = 979.9996m
 + 515:y       =   1.0498u  516:_sel    = 979.9996m  516:y       =   1.8224u
 + 517:_sel    = 979.9996m  517:y       =   1.0498u  518:_sel    = 979.9996m
 + 518:y       =   1.0498u  519:_sel    = 979.9996m  519:y       =   1.0498u
 + 520:_sel    = 979.9996m  520:y       =   1.0499u  521:_sel    = 979.9996m
 + 521:y       =   1.0498u  522:_sel    = 979.9996m  522:y       =   1.8223u
 + 523:_sel    = 979.9996m  523:y       =   2.1250u  524:_sel    = 979.9996m
 + 524:y       =   2.1250u  525:_sel    = 979.9996m  525:y       =   2.1250u
 + 526:_sel    = 979.9996m  526:y       =   2.1250u  527:_sel    = 979.9996m
 + 527:y       =   2.1250u  528:_sel    = 979.9996m  528:y       =   2.1250u
 + 529:_sel    = 979.9996m  529:y       =   2.1250u  530:_sel    = 979.9996m
 + 530:y       =   2.1250u  531:_qout1  = 979.9996m  531:clk1    = 979.9996m
 + 531:clk2    = 544.0891n  531:din1    = 979.9996m  531:qout1   = 541.4951n
 + 532:_qout1  = 979.9996m  532:clk1    = 979.9996m  532:clk2    = 544.0891n
 + 532:din1    = 979.9996m  532:qout1   = 541.4951n  533:_qout1  = 979.9996m
 + 533:clk1    = 979.9996m  533:clk2    = 544.0891n  533:din1    = 979.9996m
 + 533:qout1   = 541.4951n  534:_qout1  = 979.9996m  534:clk1    = 979.9996m
 + 534:clk2    = 544.0891n  534:din1    = 979.9996m  534:qout1   = 541.4951n
 + 535:_qout1  = 979.9996m  535:clk1    = 979.9996m  535:clk2    = 544.0891n
 + 535:din1    = 979.9996m  535:qout1   = 541.4951n  536:_qout1  = 979.9996m
 + 536:clk1    = 979.9996m  536:clk2    = 544.0891n  536:din1    = 979.9996m
 + 536:qout1   = 541.4951n  537:_qout1  = 979.9996m  537:clk1    = 979.9996m
 + 537:clk2    = 544.0891n  537:din1    = 979.9996m  537:qout1   = 541.4951n
 + 538:_qout1  = 979.9996m  538:clk1    = 979.9996m  538:clk2    = 544.0891n
 + 538:din1    = 979.9996m  538:qout1   = 541.4951n  539:_sel    = 979.9996m
 + 539:y       =   1.0498u  540:_sel    = 979.9996m  540:y       =   1.8224u
 + 541:_sel    = 979.9996m  541:y       =   1.0498u  542:_sel    = 979.9996m
 + 542:y       =   1.0498u  543:_sel    = 979.9996m  543:y       =   1.0498u
 + 544:_sel    = 979.9996m  544:y       =   1.0499u  545:_sel    = 979.9996m
 + 545:y       =   1.0498u  546:_sel    = 979.9996m  546:y       =   1.8223u
 + 547:cmm     = 594.4502n  548:cmm     = 833.0421m  549:cmm     = 355.4223n
 + 550:cmm     =   1.0136u  551:cmm     = 591.6736n  587:cmm     = 593.5236n
 + 588:cmm     = 833.0423m  589:cmmp    = 979.9988m  594:cmm     = 833.0413m
 + 595:cmmp    = 161.4559m  597:cmm     =   1.1780u  598:cmm     = 594.4324n
 + 599:cmm     = 833.0426m  600:cmm     = 355.4211n  601:cmm     =   1.0136u
 + 602:cmm     = 833.0413m  603:cmmp    = 161.4559m  605:cmm     =   1.1781u
 + 608:cmm     = 833.0428m  614:cmm     = 594.4359n  615:cmm     = 833.0426m
 + 616:cmm     = 355.4214n  617:cmm     =   1.0136u  618:cmm     = 833.0413m
 + 619:cmmp    = 161.4559m  621:cmm     =   1.1781u  624:cmm     = 355.4198n
 + 626:cmm1    = 834.6958m  626:cmm2    = 797.8407m  634:cmm     = 594.4395n
 + 635:cmm     = 833.0426m  636:cmm     = 355.4218n  637:cmm     =   1.0136u
 + 638:cmm     = 833.0413m  639:cmmp    = 161.4559m  641:cmm     =   1.1781u
 + 644:cmm     = 355.4198n  646:cmm1    = 821.4004n  646:cmm2    = 413.3492n
 + 648:cmm     = 593.5341n  649:cmm     = 833.0428m  650:cmmp    = 979.9988m
 + 651:cmmp    = 979.9996m  652:cmmp    = 979.9996m  653:cmm     =   1.1781u
 + 654:cmm     = 594.4324n  655:cmm     = 833.0426m  656:cmm     = 355.4211n
 + 657:cmm     =   1.0136u  660:cmm     = 355.4197n  662:cmm1    = 821.4003n
 + 662:cmm2    = 413.3492n  664:cmm     = 355.4198n  665:cmm     = 589.0659n
 + 666:cmmp    = 161.4551m  667:cmm1    =   1.2321u  667:cmm2    = 618.6884n
 + 668:cmm     = 833.0428m  669:cmmp    = 979.9988m  670:cmmp    = 979.9996m
 + 671:cmm1    = 979.9996m  671:cmm2    = 979.9991m  672:cmm     =   1.1781u
 + 677:cmm     = 602.8716n  678:cmmp    = 878.8625m  680:cmm     = 979.9990m
 + 681:cmm     = 355.4157n  682:cmm     = 355.4161n  683:cmm     = 591.6724n
 + 684:cmm     = 833.0422m  685:cmm     = 833.0413m  686:cmmp    = 161.4559m
 + 688:cmm     =   1.1781u  691:cmm     =  87.6988m  697:cmm     = 594.4359n
 + 698:cmm     = 833.0426m  699:cmm     = 355.4214n  700:cmm     =   1.0136u
 + 701:cmm     = 833.0422m  702:cmmp    = 161.4550m  704:cmm     =   1.1781u
 + 707:cmm     = 355.4118n  709:cmm1    = 899.2654m  709:cmm2    =  83.4994m
 + 717:cmm     = 594.4395n  718:cmm     = 833.0426m  719:cmm     = 355.4218n
 + 720:cmm     =   1.0136u  721:cmm     = 833.0422m  722:cmmp    = 161.4550m
 + 724:cmm     =   1.1781u  727:cmm     = 355.4198n  729:cmm1    = 821.3820n
 + 729:cmm2    = 413.3400n  731:cmm     = 593.5341n  732:cmm     =  87.6988m
 + 733:cmmp    = 979.9988m  734:cmmp    = 979.9996m  735:cmmp    = 979.9996m
 + 736:cmm     =   1.1781u  737:cmm     = 594.4324n  738:cmm     = 833.0426m
 + 739:cmm     = 355.4211n  740:cmm     =   1.0136u  743:cmm     = 355.4197n
 + 745:cmm1    = 821.4003n  745:cmm2    = 413.3492n  747:cmm     = 355.4117n
 + 748:cmm     = 589.0659n  749:cmmp    = 161.4551m  750:cmm1    =   1.2321u
 + 750:cmm2    = 618.6884n  751:cmm     =  87.6988m  752:cmmp    = 979.9988m
 + 753:cmmp    = 979.9996m  754:cmm1    = 979.9996m  754:cmm2    = 979.9991m
 + 755:cmm     =   1.1781u  760:cmm     = 833.0422m  761:cmmp    = 161.4550m
 + 763:cmm     =   1.1780u  764:cmm     = 594.4324n  765:cmm     = 833.0426m
 + 766:cmm     = 355.4211n  767:cmm     =   1.0136u  768:cmm     = 833.0422m
 + 769:cmmp    = 161.4550m  771:cmm     =   1.1781u  774:cmm     = 833.0428m
 + 780:cmm     = 594.4359n  781:cmm     = 833.0426m  782:cmm     = 355.4214n
 + 783:cmm     =   1.0136u  784:cmm     = 833.0422m  785:cmmp    = 161.4550m
 + 787:cmm     =   1.1781u  790:cmm     = 355.4198n  792:cmm1    = 834.6958m
 + 792:cmm2    = 797.8407m  800:cmm     = 594.4395n  801:cmm     = 833.0426m
 + 802:cmm     = 355.4218n  803:cmm     =   1.0136u  804:cmm     = 833.0422m
 + 805:cmmp    = 161.4550m  807:cmm     =   1.1780u  810:cmm     = 355.4197n
 + 812:cmm1    = 821.4002n  812:cmm2    = 413.3491n  814:cmm     = 593.5334n
 + 815:cmm     = 833.0428m  816:cmmp    = 979.9988m  817:cmmp    = 979.9996m
 + 818:cmmp    = 979.9996m  819:cmm     =   1.1781u  820:cmm     = 594.4324n
 + 821:cmm     = 833.0426m  822:cmm     = 355.4211n  823:cmm     =   1.0136u
 + 843:nin     = 543.8150n  847:nin     = 543.8150n  851:nin     = 543.8150n
 + 855:nin     = 543.8150n  856:_sel    = 979.9996m  856:y       = 979.9968m
 + 857:_sel    = 979.9996m  857:y       = 979.9991m  858:_sel    = 979.9996m
 + 858:y       = 979.9968m  859:_sel    = 979.9996m  859:y       = 979.9968m
 + 860:_sel    = 979.9996m  860:y       = 979.9968m  861:_sel    = 979.9996m
 + 861:y       = 979.9968m  862:_sel    = 979.9996m  862:y       = 979.9967m
 + 863:_sel    = 979.9996m  863:y       = 979.9967m  883:nin     = 543.8074n
 + 887:nin     = 543.8074n  891:nin     = 543.8074n  895:nin     = 543.8074n
 + 896:_sel    = 979.9996m  896:y       = 979.9973m  897:_sel    = 979.9996m
 + 897:y       = 979.9973m  898:_sel    = 979.9996m  898:y       = 979.9973m
 + 899:_sel    = 979.9996m  899:y       = 979.9973m  900:_sel    = 979.9996m
 + 900:y       = 979.9973m  901:_sel    = 979.9996m  901:y       = 979.9973m
 + 902:_sel    = 979.9996m  902:y       = 979.9973m  903:_sel    = 979.9996m
 + 903:y       = 979.9973m  942:din1    = 979.9996m  945:cmmp    = 979.9990m
 + 949:din1    = 979.9996m  952:cmmp    = 979.9990m  956:din1    = 979.9996m
 + 959:cmmp    = 979.9990m  963:din1    = 979.9996m  966:cmmp    = 979.9990m
 + 968:_qout1  = 546.3819n  968:clk1    = 979.9996m  968:clk2    = 538.8900n
 + 968:din1    = 570.5260n  968:qout1   = 979.9996m  969:_qout1  = 546.3819n
 + 969:clk1    = 979.9996m  969:clk2    = 538.8900n  969:din1    = 570.5094n
 + 969:qout1   = 979.9996m  970:_qout1  = 546.3819n  970:clk1    = 979.9996m
 + 970:clk2    = 538.8900n  970:din1    = 570.5260n  970:qout1   = 979.9996m
 + 971:_qout1  = 546.3819n  971:clk1    = 979.9996m  971:clk2    = 538.8900n
 + 971:din1    = 570.5260n  971:qout1   = 979.9996m  972:_qout1  = 546.3819n
 + 972:clk1    = 979.9996m  972:clk2    = 538.8900n  972:din1    = 570.5260n
 + 972:qout1   = 979.9996m  973:_qout1  = 546.3819n  973:clk1    = 979.9996m
 + 973:clk2    = 538.8900n  973:din1    = 570.5260n  973:qout1   = 979.9996m
 + 974:_qout1  = 546.3819n  974:clk1    = 979.9996m  974:clk2    = 538.8900n
 + 974:din1    = 570.5268n  974:qout1   = 979.9996m  975:_qout1  = 546.3819n
 + 975:clk1    = 979.9996m  975:clk2    = 538.8900n  975:din1    = 570.5265n
 + 975:qout1   = 979.9996m 1016:cmm     = 591.6717n 1018:cmm1    = 821.4147n
 +1018:cmm2    = 413.3570n 1020:cmm     =  87.6983m 1021:cmm     = 589.0759n
 +1022:cmmp    = 161.4544m 1023:cmm1    = 116.9605m 1023:cmm2    =  28.8831m
 +1024:cmm     = 355.4215n 1025:cmmp    = 878.8619m 1026:cmm1    = 116.9605m
 +1026:cmm2    =  28.8831m 1027:cmm     = 355.4216n 1028:cmmp    = 878.8619m
 +1029:cmm     =  87.6983m 1030:cmm     = 833.0423m 1031:cmmp    = 878.8621m
 +1032:cmm1    =  92.2925m 1032:cmm2    =  92.2924m 1034:cmm     = 833.0423m
 +1036:cmmp    = 161.4542m 1037:cmmp    = 979.9996m 1038:cmm     = 979.9990m
 +1039:cmmp    = 979.9996m 1040:cmmp    = 979.9996m 1041:cmm     =   1.1781u
 +1106:cmm     = 591.6651n 1111:nin     = 543.8154n 1115:nin     = 543.7832n
 +1119:nin     = 543.8154n 1123:nin     = 543.8154n 1127:nin     = 543.8156n
 +1131:nin     = 543.8157n 1135:nin     = 543.8156n 1139:nin     = 543.7834n
 +1143:nin     = 543.8000n 1147:nin     = 543.7832n 1151:nin     = 543.8000n
 +1155:nin     = 543.8000n 1159:nin     = 543.8002n 1163:nin     = 543.8003n
 +1167:nin     = 543.8002n 1171:nin     = 543.7834n 1175:nin     = 543.8074n
 +1179:nin     = 543.8074n 1183:nin     = 543.8074n 1187:nin     = 543.8074n
 +1191:nin     = 543.8074n 1195:nin     = 543.8074n 1199:nin     = 543.8074n
 +1203:nin     = 543.8074n 1206:din1    = 979.9996m 1209:cmmp    = 979.9989m
 +1213:din1    = 979.9996m 1216:cmmp    = 979.9996m 1220:din1    = 979.9996m
 +1223:cmmp    = 979.9989m 1227:din1    = 979.9996m 1230:cmmp    = 979.9989m
 +1234:din1    = 979.9996m 1237:cmmp    = 979.9989m 1241:din1    = 979.9996m
 +1244:cmmp    = 979.9989m 1248:din1    = 979.9996m 1251:cmmp    = 979.9989m
 +1255:din1    = 979.9996m 1258:cmmp    = 979.9996m 1300:cmm     = 833.0428m
 +1302:cmm1    = 834.6943m 1302:cmm2    = 797.8400m 1304:cmm     = 593.5543n
 +1305:cmm     = 833.0428m 1306:cmmp    = 979.9988m 1307:cmm1    =   1.2324u
 +1307:cmm2    = 618.8264n 1308:cmm     = 593.7046n 1309:cmmp    = 979.9996m
 +1310:cmm1    =   1.2321u 1310:cmm2    = 618.7093n 1311:cmm     = 833.0419m
 +1312:cmmp    = 979.9988m 1313:cmm     = 593.5543n 1314:cmm     = 833.0429m
 +1315:cmmp    = 979.9988m 1316:cmm1    = 834.6944m 1316:cmm2    = 797.8401m
 +1318:cmm     = 833.0429m 1320:cmmp    = 979.9996m 1321:cmmp    = 979.9988m
 +1322:cmm     = 979.9993m 1323:cmmp    = 979.9996m 1324:cmmp    = 979.9996m
 +1325:cmm     =   1.1781u 1390:cmm     = 591.6651n 1395:nin     = 979.9996m
 +1399:nin     = 979.9996m 1403:nin     = 979.9996m 1407:nin     = 979.9996m
 +1411:nin     = 979.9996m 1415:nin     = 979.9996m 1419:nin     = 979.9996m
 +1423:nin     = 979.9996m 1427:nin     = 979.9996m 1431:nin     = 979.9996m
 +1435:nin     = 979.9996m 1439:nin     = 979.9996m 1443:nin     = 979.9996m
 +1447:nin     = 979.9996m 1451:nin     = 979.9996m 1455:nin     = 979.9996m
 +1459:nin     = 979.9996m 1463:nin     = 979.9996m 1467:nin     = 979.9996m
 +1471:nin     = 979.9996m 1475:nin     = 979.9996m 1479:nin     = 979.9996m
 +1483:nin     = 979.9996m 1487:nin     = 979.9996m 1490:din1    = 562.9654n
 +1493:cmmp    = 161.4546m 1497:din1    = 562.9654n 1500:cmmp    = 161.4547m
 +1504:din1    = 562.9654n 1507:cmmp    = 161.4546m 1511:din1    = 562.9654n
 +1514:cmmp    = 161.4546m 1518:din1    = 562.9654n 1521:cmmp    = 161.4546m
 +1525:din1    = 562.9654n 1528:cmmp    = 161.4546m 1532:din1    = 562.9654n
 +1535:cmmp    = 161.4546m 1539:din1    = 562.9654n 1542:cmmp    = 161.4547m
 +1547:nin     = 979.9996m 1551:nin     = 979.9996m 1555:nin     = 979.9996m
 +1559:nin     = 979.9996m 1563:nin     = 979.9996m 1567:nin     = 979.9996m
 +1571:nin     = 979.9996m 1575:nin     = 979.9996m 1620:cmm     = 591.6577n
 +1648:cmm     = 591.6583n 1686:cmm     = 591.6585n 1732:cmm     = 591.6582n
 +1772:cmm     = 591.6620n 1844:cmm     = 591.6656n 1856:cmm     = 355.4213n
 +1884:cmm     = 591.6583n 1922:cmm     = 591.6585n 1968:cmm     = 591.6582n
 +2008:cmm     = 591.6620n 2080:cmm     = 591.6656n 2092:cmm     = 591.6577n
 +2120:cmm     = 591.6580n 2158:cmm     = 591.6580n 2204:cmm     = 591.6577n
 +2244:cmm     = 591.6620n 2305:nin     = 543.8150n 2309:nin     = 543.7830n
 +2313:nin     = 543.8150n 2317:nin     = 543.8150n 2321:nin     = 543.8150n
 +2325:nin     = 543.8150n 2329:nin     = 543.8158n 2333:nin     = 543.8155n
 +2377:nin     = 543.8074n 2381:nin     = 543.8074n 2385:nin     = 543.8074n
 +2389:nin     = 543.8074n 2393:nin     = 543.8074n 2397:nin     = 543.8074n
 +2401:nin     = 543.8074n 2405:nin     = 543.8074n 2496:din1    = 979.9996m
 +2499:cmmp    = 979.9990m 2503:din1    = 979.9996m 2506:cmmp    = 979.9996m
 +2510:din1    = 979.9996m 2513:cmmp    = 979.9990m 2517:din1    = 979.9996m
 +2520:cmmp    = 979.9990m 2524:din1    = 979.9996m 2527:cmmp    = 979.9990m
 +2531:din1    = 979.9996m 2534:cmmp    = 979.9990m 2538:din1    = 979.9996m
 +2541:cmmp    = 979.9989m 2545:din1    = 979.9996m 2548:cmmp    = 979.9989m
 +2638:cmm     = 355.4197n 2648:cmm     = 591.6620n 3080:cmm     = 833.0421m
 +3090:cmm     = 591.6620n


 **** voltage sources

 subckt                                                          
 element     0:vclk        0:vddgl       0:vddgl_      0:vddgnd_ 
  volts         0.          980.0000m     980.0000m       0.     
  current       1.1786p    -109.5647n     -10.3176n      11.3292n
  power         0.          107.3734n      10.1113n       0.     

 subckt                    x_mms         x_mms         x_mms     
 element     0:vrst        1:v_a10       1:v_a11       1:v_a12   
  volts         0.            0.            0.            0.     
  current       1.1786p       1.2072p       1.2072p       1.2072p
  power         0.            0.            0.            0.     

 subckt      x_mms         x_mms         x_mms         x_mms     
 element     1:v_a13       1:v_a8        1:v_a9        1:v_f0    
  volts         0.            0.            0.            0.     
  current       1.2072p       1.2072p       1.2072p    -188.5947p
  power         0.            0.            0.            0.     

 subckt      x_mms         x_mms         x_mms         x_mms     
 element     1:v_f1        1:v_f2        1:v_f3        1:v_f4    
  volts         0.            0.            0.            0.     
  current    -188.5947p    -188.5947p    -188.5947p    -188.5947p
  power         0.            0.            0.            0.     

 subckt      x_mms         x_mms         x_mms         x_mms     
 element     1:v_f5        1:v_f6        1:v_f7        1:v_h0    
  volts         0.            0.            0.            0.     
  current    -188.5947p    -188.5947p    -188.5947p     378.6184p
  power         0.            0.            0.            0.     

 subckt      x_mms         x_mms         x_mms         x_mms     
 element     1:v_h1        1:v_h10       1:v_h11       1:v_h12   
  volts         0.            0.            0.            0.     
  current     378.6183p     188.9949p     188.9949p     188.9949p
  power         0.            0.            0.            0.     

 subckt      x_mms         x_mms         x_mms         x_mms     
 element     1:v_h13       1:v_h2        1:v_h3        1:v_h4    
  volts         0.            0.            0.            0.     
  current     188.9949p     378.6183p     378.6183p     378.6183p
  power         0.            0.            0.            0.     

 subckt      x_mms         x_mms         x_mms         x_mms     
 element     1:v_h5        1:v_h6        1:v_h7        1:v_h8    
  volts         0.            0.            0.            0.     
  current     378.6183p     378.6184p     378.6183p     188.9949p
  power         0.            0.            0.            0.     

 subckt      x_mms         x_mms.x_te    x_mms.x_te
 element     1:v_h9       70:v_gnd_y0   93:v_gnd_y0
  volts         0.            0.            0.     
  current     188.9949p       0.            0.     
  power         0.            0.            0.     

     total voltage source power dissipation=  117.4847n       watts


 ******  
 .title mms testbench

 ****** transient analysis tnom=  25.000 temp=  40.000 ******
 avg_power=-105.2247u  from=   0.          to=  45.0000n

          ***** job concluded
1****** HSPICE -- J-2014.09-SP2-2 64-BIT (Apr 17 2015) win64 ******             
 ******  
 .title mms testbench

 ****** job statistics summary tnom=  25.000 temp=  40.000 ******

  ******  HSPICE Threads Information  ******

  Command Line Threads Count :     1
  Available CPU Count        :     8
  Actual Threads Count       :     1


  ****** Statistics of Ignored Elements ******
  Voltage Sources :       1

  ******  Circuit Statistics  ******
  # nodes       =    7167 # elements   =    2983
  # resistors   =       2 # capacitors =      30 # inductors   =       0
  # mutual_inds =       0 # vccs       =       0 # vcvs        =       0
  # cccs        =       0 # ccvs       =       0 # volt_srcs   =      35
  # curr_srcs   =       0 # diodes     =       0 # bjts        =       0
  # jfets       =       0 # mosfets    =    2906 # U elements  =       0
  # T elements  =       0 # W elements =       0 # B elements  =       0
  # S elements  =       0 # P elements =       0 # va device   =       0
  # vector_srcs =      10 # N elements =       0


  ******  Runtime Statistics (seconds)  ******

  analysis           time    # points   tot. iter  conv.iter
  op point          17.47           1        2621
  transient         54.61          46       17964        5723 rev=       110
  readin             0.02
  errchk             0.25
  setup              0.08
  output             0.00


           peak memory used        115.72 megabytes
           total cpu time           72.48 seconds
           total elapsed time       72.50 seconds
           job started at     22:00:05 01/10/2021
           job ended   at     22:04:15 01/10/2021


  lic: Release hspice token(s) 
 lic: total license checkout elapse time:        0.02(s)
